$$
$$ Optistruct Input Deck Generated by HyperMesh Version  : 2023.1.0.22
$$ Generated using HyperMesh-Optistruct Template Version : 2023.1.0.22-53972
$$
$$   Template:  optistruct
$$
$$
$$ optistruct
$
SYSSETTING(SKIP10FIELD=CHECK)
$$------------------------------------------------------------------------------$
$$                      Case Control Cards                                      $
$$------------------------------------------------------------------------------$
$
$HMNAME LOADSTEP               2"loadstep2"      30
$
SUBCASE        2
  LABEL loadstep2
ANALYSIS FLUTTER
  SPC =        1
  METHOD(STRUCTURE) =        1
  FMETHOD =        3
$$--------------------------------------------------------------
$$ HYPERMESH TAGS 
$$--------------------------------------------------------------
$$BEGIN TAGS
$$END TAGS
$
BEGIN BULK
PARAM,CHECKEL,NO  
$$
$$  Stacking Information for Ply-Based Composite Definition
$$
SET1,2,147,158,168,179,7510,7517,7524,
+,7531,7537,7543,7554,7564,7575,7585,7596,
+,7606,7617,7627,7638,7648,7693,7699,7705,
+,7712,7719,7726,7896,7918,8029,8119,8140,
+,8250,8370,8504,8589,8725,8885,8995,9016,
+,9113,9244,9401,9408,9459,9648,9655,9705,
+,9876,9895,9919,10104,10122,10144,10355,10360,
+,10407,10582,10588,10626,10972,10983,11039,11166,
+,11212,11252,11350,11363,11416,11429,11434,11487,
+,11609,11649,11662,11671,11681,11732,11793,11803,
+,11850,11950,11962,12009,12056,12104,12490,12525,
+,12532,12688,12735,12742,
$HMSET        2        1 "SET1_1" 18
$HMSETTYPE         2 "non-ordered" 18
SET1,4,147,7510,7517,7524,7531,7537,7543,
+,12767,12779,12792,12804,12817,12829,12842,12848,
+,12854,12861,12868,12874,12882,12883,12891,12898,
+,12904,12911,12917,13046,13217,13245,13370,13460,
+,13488,13745,13904,13933,14160,14348,14393,14536,
+,14666,14695,14835,14936,15026,15056,15082,15096,
+,15205,15372,15401,15584,15640,15750,15779,15828,
+,15873,15883,15960,15973,15985,15998,16010,16023,
+,16035,16042,16049,16057,16063,16070,16081,16087,
+,16094,16101,16108,16116,16129,16141,16154,16166,
+,16179,16196,16203,16209,16216,16223,16324,16360,
+,16517,16739,16779,16948,17018,17207,17441,17668,
+,17766,17802,17968,18200,18240,18407,18479,18677,
+,18933,19147,22201,22213,22226,22238,22251,22312,
+,22325,22342,22348,22355,22362,22369,22376,22479,
+,22506,22663,22898,22925,23094,23164,23353,23600,
+,23814,23921,23948,24114,24357,24386,24553,24624,
+,24652,24769,25077,25108,25293,28196,28208,28221,
+,28233,28246,28386,28399,28411,28423,28436,28455,
+,28461,28468,28475,28590,28666,28913,28981,28998,
+,29447,29548,29789,29873,29884,29984,30080,30319,
+,30383,30421,30483,30865,30973,31095,31109,31336,
$HMSET        4        1 "SET1_3" 18
$HMSETTYPE         4 "non-ordered" 18

$$
$$  GRID Data
$$
GRID,1,,35.949308355609,281.84678899406,8.1034587098228,
GRID,2,,35.950179492566,281.82522251591,8.1027231600149,
GRID,3,,35.950942601932,281.80633045705,8.1020788275187,
GRID,4,,35.951731732214,281.78679421752,8.1014125276216,
GRID,5,,35.952539525354,281.76679595808,8.100730473275,
GRID,6,,35.953347318876,281.74679769835,8.1000484220271,
GRID,7,,35.954155112729,281.72679943834,8.099366373821,
GRID,8,,35.954962906859,281.70680117806,8.0986843286001,
GRID,9,,35.955770701216,281.68680291751,8.0980022863078,
GRID,10,,35.956578495747,281.6668046567,8.0973202468877,
GRID,11,,35.9573862904,281.64680639564,8.0966382102833,
GRID,12,,35.958194085123,281.62680813432,8.0959561764383,
GRID,13,,35.959001879865,281.60680987277,8.0952741452967,
GRID,14,,35.959809674574,281.58681161097,8.0945921168023,
GRID,15,,35.960617469198,281.56681334895,8.0939100908993,
GRID,16,,35.961425263684,281.54681508671,8.0932280675316,
GRID,17,,35.962233057982,281.52681682425,8.0925460466437,
GRID,18,,35.96304085204,281.50681856158,8.0918640281798,
GRID,19,,35.963848645805,281.48682029871,8.0911820120844,
GRID,20,,35.964656439227,281.46682203563,8.0904999983021,
$ ... 41229 like lines cut
$$
$$  CTRIA3 Data
$$
$HMCOMP ID                     3       2       4
CTRIA3,40340,2,40303,72,71,
CTRIA3,40411,2,1,7648,2,
CTRIA3,40412,2,255,254,40304,
CTRIA3,40423,2,40312,40307,40310,
CTRIA3,40431,2,40318,40315,40314,
CTRIA3,40432,2,40312,11867,40321,
CTRIA3,40435,2,40319,40323,262,
CTRIA3,40455,2,40340,40333,40331,
CTRIA3,40464,2,40339,40347,40352,
CTRIA3,40491,2,40368,40364,40376,
CTRIA3,40498,2,40381,40370,40366,
CTRIA3,40504,2,40377,40373,40391,
CTRIA3,40528,2,40403,40395,40409,
CTRIA3,40531,2,40410,40416,40391,
CTRIA3,40539,2,40420,40408,40405,
CTRIA3,40545,2,40406,40418,40429,
CTRIA3,40568,2,40435,40429,40451,
CTRIA3,40576,2,40434,40443,40456,
CTRIA3,40577,2,40460,40436,40445,
CTRIA3,40587,2,40465,40452,40448,
$ ... 70 like lines cut
$HMCOMP ID                     5       1       4
CTRIA3,39225,1,39442,39440,39443,
CTRIA3,39232,1,39444,39446,39449,
CTRIA3,39241,1,39453,39457,39451,
CTRIA3,39302,1,19166,19165,39364,
CTRIA3,39308,1,39505,39506,39504,
CTRIA3,39312,1,39064,39063,39507,
CTRIA3,39320,1,16054,16053,38914,
CTRIA3,39321,1,39067,39066,39511,
CTRIA3,39347,1,39529,39526,39532,
CTRIA3,39357,1,39536,39533,39538,
CTRIA3,39368,1,39543,39542,39544,
CTRIA3,39378,1,16071,39547,16072,
CTRIA3,39387,1,39549,39548,39551,
CTRIA3,39390,1,16114,16113,39551,
CTRIA3,39397,1,39555,16113,16112,
CTRIA3,39398,1,39554,39558,39559,
CTRIA3,39403,1,39562,39560,39559,
CTRIA3,39408,1,39568,39565,39561,
CTRIA3,39416,1,39567,39572,39568,
CTRIA3,39441,1,39595,39591,39589,
$ ... 86 like lines cut
$
$$
$$  CQUAD4 Elements
$$
$HMCOMP ID                     3       2       4
CQUAD4,1,2,442,445,447,441,
CQUAD4,2,2,441,447,437,438,
CQUAD4,3,2,445,446,448,447,
CQUAD4,4,2,447,448,436,437,
CQUAD4,5,2,446,429,430,448,
CQUAD4,6,2,448,430,431,436,
CQUAD4,7,2,417,418,449,444,
CQUAD4,8,2,444,449,450,443,
CQUAD4,9,2,443,450,445,442,
CQUAD4,10,2,427,451,419,420,
CQUAD4,11,2,451,449,418,419,
CQUAD4,12,2,429,446,452,428,
CQUAD4,13,2,428,452,451,427,
CQUAD4,14,2,446,445,450,452,
CQUAD4,15,2,452,450,449,451,
CQUAD4,16,2,402,453,455,401,
CQUAD4,17,2,401,455,440,400,
CQUAD4,18,2,453,454,456,455,
CQUAD4,19,2,455,456,439,440,
CQUAD4,20,2,454,442,441,456,
$ ... 35177 like lines cut
$HMCOMP ID                     5       1       4
CQUAD4,39220,1,19182,39439,16036,16035,
CQUAD4,39221,1,19181,39440,39439,19182,
CQUAD4,39222,1,39439,39441,16037,16036,
CQUAD4,39223,1,39443,39440,19181,19180,
CQUAD4,39224,1,39440,39442,39441,39439,
CQUAD4,39226,1,39443,19180,19179,39445,
CQUAD4,39227,1,39441,39444,16038,16037,
CQUAD4,39228,1,39442,39446,39444,39441,
CQUAD4,39229,1,39447,39442,39443,39445,
CQUAD4,39230,1,39445,19179,19178,39448,
CQUAD4,39231,1,39447,39451,39446,39442,
CQUAD4,39233,1,39447,39445,39448,39450,
CQUAD4,39234,1,16038,39444,39449,16039,
CQUAD4,39235,1,19178,19177,39452,39448,
CQUAD4,39236,1,39449,39446,39451,39454,
CQUAD4,39237,1,39451,39447,39450,39453,
CQUAD4,39238,1,39448,39452,39455,39450,
CQUAD4,39239,1,19177,19176,39456,39452,
CQUAD4,39240,1,39449,39454,16040,16039,
CQUAD4,39242,1,39450,39455,39458,39453,
$ ... 924 like lines cut
$HMCOMP ID                     6       1       4
CQUAD4,33976,1,34191,34199,34200,34190,
CQUAD4,33977,1,34190,34200,34188,34189,
CQUAD4,33978,1,34199,34197,34198,34200,
CQUAD4,33979,1,34200,34198,34187,34188,
CQUAD4,33980,1,34193,34194,34201,34192,
CQUAD4,33981,1,34192,34201,34199,34191,
CQUAD4,33982,1,34194,34195,34196,34201,
CQUAD4,33983,1,34201,34196,34197,34199,
CQUAD4,33984,1,34368,34369,34365,34366,
CQUAD4,33985,1,34369,34202,34203,34365,
CQUAD4,33986,1,34191,34190,34369,34368,
CQUAD4,33987,1,34190,34189,34202,34369,
CQUAD4,33988,1,34352,34370,34367,34351,
CQUAD4,33989,1,34370,34368,34366,34367,
CQUAD4,33990,1,34193,34192,34370,34352,
CQUAD4,33991,1,34192,34191,34368,34370,
CQUAD4,33992,1,34371,34372,34362,34363,
CQUAD4,33993,1,34372,34204,34205,34362,
CQUAD4,33994,1,34366,34365,34372,34371,
CQUAD4,33995,1,34365,34203,34204,34372,
$ ... 5224 like lines cut
$
$$
$$------------------------------------------------------------------------------$
$$    HyperMesh name and color information for generic components               $
$$------------------------------------------------------------------------------$
$HMNAME COMP                   1"asw flugel daniel neueste_body1" 
$HWCOLOR COMP                  1      50
$
$HMNAME COMP                   2"Origin point" 
$HWCOLOR COMP                  2      54
$
$HMNAME COMP                   3"Skin"        2 "Laminate" 4 
$HWCOLOR COMP                  3       3
$
$HMNAME COMP                   5"Ribs"        1 "Aluminum Shell" 4 
$HWCOLOR COMP                  5      10
$
$HMNAME COMP                   6"Spar"        1 "Aluminum Shell" 4 
$HWCOLOR COMP                  6      31
$
$HMNAME COMP                1001"CAERO1_1001"     1001 "PAERO1_1001" 104 
$HWCOLOR COMP               1001      58
$
$HMNAME COMP                2001"CAERO1_2001"     2001 "PAERO1_2001" 104 
$HWCOLOR COMP               2001      50
$

$

$
$$
$$  PSHELL Data
$$
$HMNAME PROP                   1"Aluminum Shell" 4
$HWCOLOR PROP                  1      59
PSHELL,1,1,0.002,1,,1,,0.0,
$$
$$  PCOMP Data
$$
$HMNAME PROP                   2"Laminate" 4
$HWCOLOR PROP                  2      59
PCOMP,2,,,,,,,,
+,20,0.0001,-75.0,NO,20,0.0001,21.0,NO,
+,20,0.0001,-68.0,NO,20,0.0001,75.0,NO,
+,20,0.0001,-21.0,NO,20,0.0001,68.0,NO,

$$
$$  MAT1 Data
$$
$HMNAME MAT                    1"Aluminium" "MAT1"
$HWCOLOR MAT                   1      43
MAT1,1,69000000000.0,,0.33,2700.0,,,,
$$
$$  MAT8 Data
$$
$HMNAME MAT                   20"Orthotropic Material SI" "MAT8"
$HWCOLOR MAT                  20       3
MAT8,20,125000000000.0,8410000000.0,0.35,4230000000.0,,,1517.0,
$$
$$------------------------------------------------------------------------------$
$$ HyperMesh Commands for loadcollectors name and color information $
$$------------------------------------------------------------------------------$
$HMNAME LOADCOL                1"auto1"
$HWCOLOR LOADCOL               1       8
$$
$$
$$  Real Eigen value extraction
$$
$
$HMNAME LOADSTEPINPUT        1"8modes"
EIGRL,1,0.0,,8,,,,,
$$
$$  SPC Data
$$
SPC,1,15883,123456,0.0,
SPC,1,15884,123456,0.0,
SPC,1,16035,123456,0.0,
SPC,1,16036,123456,0.0,
SPC,1,16037,123456,0.0,
SPC,1,16038,123456,0.0,
SPC,1,16039,123456,0.0,
SPC,1,16040,123456,0.0,
SPC,1,16041,123456,0.0,
SPC,1,16042,123456,0.0,
SPC,1,16043,123456,0.0,
SPC,1,16044,123456,0.0,
SPC,1,16045,123456,0.0,
SPC,1,16046,123456,0.0,
SPC,1,16047,123456,0.0,
SPC,1,16048,123456,0.0,
SPC,1,16049,123456,0.0,
SPC,1,16050,123456,0.0,
SPC,1,16051,123456,0.0,
SPC,1,16052,123456,0.0,
$ ... 185 like lines cut
AERO,,1.0,0.92,1.225,1,0,
CAERO1,1001,1001,0,24,6,,,1,
+,35.29375,273.76434,7.86060,.86854,35.38515,279.72661,8.04274,.649697,
CAERO1,2001,2001,0,12,6,,,1,
+,35.38515,279.72661,8.04274,.64969,35.65450,282.25453,8.12833,.281233,
$HMNAME PROP                1001"PAERO1_1001" 104
$HWCOLOR PROP               1001      11
PAERO1,1001,
$HMNAME PROP                2001"PAERO1_2001" 104
$HWCOLOR PROP               2001      11
PAERO1,2001,
SPLINE1,1,2001,2001,2072,2,0.0, , ,
SPLINE1,2,1001,1001,1144,4,0.0, , ,
$HMNAME LOADCOL*                       2"MKAERO"
$HWCOLOR LOADCOL*                      2      54
MKAERO1,0.0,
+,0.2,0.4,0.8,1.6,3.2,6.4,10.0,14.0,
$HMNAME LOADCOL                4"MACH"
$HWCOLOR LOADCOL               4       9
FLFACT,4,0.0,
$HMNAME LOADCOL                5"DENS"
$HWCOLOR LOADCOL               5      60
FLFACT,5,1.0,
$HMNAME LOADCOL                6"VEL"
$HWCOLOR LOADCOL               6      11
FLFACT,6,20.0,THRU,320.0,30,160.0,
$HMNAME LOADCOL                3"Flutter"
$HWCOLOR LOADCOL               3      12
FLUTTER,3,PK,5,4,6, ,,,
ENDDATA
$$
$$------------------------------------------------------------------------------$$
$$        Data Definition for AutoDV                                            $$
$$------------------------------------------------------------------------------$$
$$
$$-----------------------------------------------------------------------------$$
$$        Design Variables Card for Control Perturbations                      $$
$$-----------------------------------------------------------------------------$$
$$
$$------------------------------------------------------------------------------$
$$        Domain Element Definitions                                            $
$$------------------------------------------------------------------------------$
$$
$$------------------------------------------------------------------------------$$
$$            Control Perturbation                                              $$
$$------------------------------------------------------------------------------$$
$$<?xml version="1.0" encoding="utf-8"?>
$$<Altair_XML_Export>
$$    <UDM xmlns:SOAP-ENV="http://schemas.xmlsoap.org/soap/envelope/" xmlns:SOAP-ENC="http://schemas.xmlsoap.org/soap/encoding/" xmlns:xsi="http://www.w3.org/2001/XMLSchema-instance" xmlns:xsd="http://www.w3.org/2001/XMLSchema" xmlns:udmcfg="http://schemas.altair.com/AltairUDMRuntimeConfig" xmlns:udmxml="http://schemas.altair.com/AltairUDM" xmlns:importrules="http://schemas.altair.com/hsm/importru
$$        <udmxml:EntityCollection xsi:type="udmxml:EntityCollectionCType">
$$            <udmxml:Entity xsi:type="udmxml:AssemblyDMCType" displayName="HW_Assembly" contentDefinitionType="UDMAssemblyDM" id="ab8271319303c847a727739f884be6c3:0">
$$                <udmxml:Children>
$$                    <udmxml:Child xsi:type="udmxml:ChildCType" refId="dc89ed8551befa40b5dcd7622d1b01e9:0" timestamp="1718817472341027" childFlags="0" groupName="boas" contentDefinitionType="UDMBOA"/>
$$                </udmxml:Children>
$$            </udmxml:Entity>
$$            <udmxml:Entity xsi:type="udmxml:BOACType" displayName="HW_BOA" contentDefinitionType="UDMBOA" id="dc89ed8551befa40b5dcd7622d1b01e9:0">
$$                <udmxml:Children>
$$                    <udmxml:Child xsi:type="udmxml:ChildCType" refId="813b99ffc83aed4d8e9ca60d389bafe6:0" timestamp="1718817472341027" childFlags="0" groupName="parts" contentDefinitionType="UDMPartProtoOcc">
$$                        <AdditionalIdList xsi:type="udmxml:AdditionalIdCType" xmlns="http://schemas.altair.com/AltairUDM" keyValue="Model" keyName="displayname" contentDefinitionType="UDMPartProtoOcc"/>
$$                    </udmxml:Child>
$$                </udmxml:Children>
$$            </udmxml:Entity>
$$            <udmxml:Entity xsi:type="udmxml:PartCType" displayName="asw flugel daniel neueste.p" contentDefinitionType="UDMPartProto" id="bfc4a79136fa26438c04def6a858eb2f:0">
$$                <udmxml:Attributes>
$$                    <udmxml:Attribute xsi:type="udmxml:AttributeCType" valueutf8="-" type="string" name="studyrevision" displayName="STUDY_REVISION">-</udmxml:Attribute>
$$                    <udmxml:Attribute xsi:type="udmxml:AttributeCType" valueutf8="asw flugel daniel neueste" type="string" name="HW_UID">asw flugel daniel neueste</udmxml:Attribute>
$$                    <udmxml:Attribute xsi:type="udmxml:AttributeCType" valueutf8="-" type="string" name="PLMXML_PRODUCTREVISION_REVISION">-</udmxml:Attribute>
$$                </udmxml:Attributes>
$$                <udmxml:Children>
$$                    <udmxml:Child xsi:type="udmxml:ChildCType" refId="821ba630f9ef3c46b103a70dcee615a9:0" timestamp="1718817487972079" childFlags="0" groupName="representations" contentDefinitionType="UDMRepPartCad"/>
$$                    <udmxml:Child xsi:type="udmxml:ChildCType" refId="2ea83df6da185f4a952bc8efa1dd0beb:0" timestamp="1718817487972079" childFlags="0" groupName="representations" contentDefinitionType="UDMRepPartCad"/>
$$                </udmxml:Children>
$$            </udmxml:Entity>
$$            <udmxml:Entity xsi:type="udmxml:PartCType" displayName="Sailplane.p" contentDefinitionType="UDMPartProto" id="ba1bc57a86694c4085397542baa3625f:0">
$$                <udmxml:Attributes>
$$                    <udmxml:Attribute xsi:type="udmxml:AttributeCType" valueutf8="-" type="string" name="studyrevision" displayName="STUDY_REVISION">-</udmxml:Attribute>
$$                    <udmxml:Attribute xsi:type="udmxml:AttributeCType" valueutf8="Sailplane" type="string" name="HW_UID">Sailplane</udmxml:Attribute>
$$                    <udmxml:Attribute xsi:type="udmxml:AttributeCType" valueutf8="-" type="string" name="PLMXML_PRODUCTREVISION_REVISION">-</udmxml:Attribute>
$$                </udmxml:Attributes>
$$                <udmxml:Children>
$$                    <udmxml:Child xsi:type="udmxml:ChildCType" refId="2de0bfbb1fbb05459d6d4ac0b2955046:0" timestamp="1718817487971538" childFlags="0" groupName="partprotoinst" contentDefinitionType="UDMPartProtoInst"/>
$$                </udmxml:Children>
$$            </udmxml:Entity>
$$            <udmxml:Entity xsi:type="udmxml:PartCType" displayName="Module Model.p" contentDefinitionType="UDMPartProto" id="295574a7e0cd0040809c171b961ad442:0">
$$                <udmxml:Children>
$$                    <udmxml:Child xsi:type="udmxml:ChildCType" refId="28cf2376aa88bb4381eccbb2e3e6badf:0" timestamp="1718817487971057" childFlags="0" groupName="partprotoinst" contentDefinitionType="UDMPartProtoInst"/>
$$                </udmxml:Children>
$$            </udmxml:Entity>
$$            <udmxml:Entity xsi:type="udmxml:PartCType" displayName="asw flugel daniel neueste" contentDefinitionType="UDMPartProtoInst" id="2de0bfbb1fbb05459d6d4ac0b2955046:0">
$$                <udmxml:Attributes>
$$                    <udmxml:Attribute xsi:type="udmxml:AttributeCType" valueutf8="0.999547 -1.52359e-05 0.0300927 0 -0.000101536 0.999992 0.00387887 0 -0.0300926 -0.00388017 0.99954 0 -114.568 -162.799 -30.5312 1" type="string" name="trfmtx" displayName="Transformation matrix">0.999547 -1.52359e-05 0.0300927 0 -0.000101536 0.999992 0.00387887 0 -0.0300926 -0.00388017 0.99954 0 -114.568 -162.799 
$$                    <udmxml:Attribute xsi:type="udmxml:AttributeCType" valueutf8="true" type="boolean" name="trfmtxisrel" displayName="Is matrix relative?">true</udmxml:Attribute>
$$                </udmxml:Attributes>
$$                <udmxml:Children>
$$                    <udmxml:Child xsi:type="udmxml:ChildCType" refId="bfc4a79136fa26438c04def6a858eb2f:0" timestamp="1718817487971538" childFlags="0" groupName="partprotos" contentDefinitionType="UDMPartProto"/>
$$                </udmxml:Children>
$$                <TransformationMatrix xsi:type="udmxml:TransformationMatrixCType" xmlns="http://schemas.altair.com/AltairUDM" transformationMatrixIsRelative="true" transformationMatrix="0.999547 -1.52359e-05 0.0300927 0 -0.000101536 0.999992 0.00387887 0 -0.0300926 -0.00388017 0.99954 0 -114.568 -162.799 -30.5312 1"/>
$$            </udmxml:Entity>
$$            <udmxml:Entity xsi:type="udmxml:PartCType" displayName="Sailplane" contentDefinitionType="UDMPartProtoInst" id="28cf2376aa88bb4381eccbb2e3e6badf:0">
$$                <udmxml:Attributes>
$$                    <udmxml:Attribute xsi:type="udmxml:AttributeCType" valueutf8="1 0 0 0 0 1 0 0 0 0 1 0 0 0 0 1" type="string" name="trfmtx" displayName="Transformation matrix">1 0 0 0 0 1 0 0 0 0 1 0 0 0 0 1</udmxml:Attribute>
$$                    <udmxml:Attribute xsi:type="udmxml:AttributeCType" valueutf8="true" type="boolean" name="trfmtxisrel" displayName="Is matrix relative?">true</udmxml:Attribute>
$$                </udmxml:Attributes>
$$                <udmxml:Children>
$$                    <udmxml:Child xsi:type="udmxml:ChildCType" refId="ba1bc57a86694c4085397542baa3625f:0" timestamp="1718817487971057" childFlags="0" groupName="partprotos" contentDefinitionType="UDMPartProto"/>
$$                </udmxml:Children>
$$                <TransformationMatrix xsi:type="udmxml:TransformationMatrixCType" xmlns="http://schemas.altair.com/AltairUDM" transformationMatrixIsRelative="true" transformationMatrix="1 0 0 0 0 1 0 0 0 0 1 0 0 0 0 1"/>
$$            </udmxml:Entity>
$$            <udmxml:Entity xsi:type="udmxml:PartCType" protoInstanceRefId="2de0bfbb1fbb05459d6d4ac0b2955046:0" prototypeRefId="bfc4a79136fa26438c04def6a858eb2f:0" displayName="asw flugel daniel neueste" contentDefinitionType="UDMPartProtoOcc" id="9c658fe15037ab488a887fef38b3fd9e:0">
$$                <udmxml:Attributes>
$$                    <udmxml:Attribute xsi:type="udmxml:AttributeCType" valueutf8="bfc4a79136fa26438c04def6a858eb2f" type="string" name="protoref" displayName="Prototype reference">bfc4a79136fa26438c04def6a858eb2f</udmxml:Attribute>
$$                    <udmxml:Attribute xsi:type="udmxml:AttributeCType" valueutf8="2de0bfbb1fbb05459d6d4ac0b2955046" type="string" name="protoinstanceref" displayName="Prototype Instance reference">2de0bfbb1fbb05459d6d4ac0b2955046</udmxml:Attribute>
$$                    <udmxml:Attribute xsi:type="udmxml:AttributeCType" valueutf8="Components(3,1001,2001)" type="string" name="EntitySelectionExp">Components(3,1001,2001)</udmxml:Attribute>
$$                    <udmxml:Attribute xsi:type="udmxml:AttributeCType" valueutf8="6" type="int" name="MODELUNIT">6</udmxml:Attribute>
$$                    <udmxml:Attribute xsi:type="udmxml:AttributeCType" valueutf8="3,1001,2001" type="string" name="SelectionExp">3,1001,2001</udmxml:Attribute>
$$                    <udmxml:Attribute xsi:type="udmxml:AttributeCType" valueutf8="50" type="string" name="UdmxmlString_HmOccurrenceColor">50</udmxml:Attribute>
$$                    <udmxml:Attribute xsi:type="udmxml:AttributeCType" valueutf8="6" type="string" name="UdmxmlString_HmOccurrenceId">6</udmxml:Attribute>
$$                    <udmxml:Attribute xsi:type="udmxml:AttributeCType" valueutf8="1549808" type="string" name="UdmxmlString_HmOccurrenceTrueColor">1549808</udmxml:Attribute>
$$                </udmxml:Attributes>
$$                <udmxml:Children>
$$                    <udmxml:Child xsi:type="udmxml:ChildCType" refId="821ba630f9ef3c46b103a70dcee615a9:0" timestamp="default" childFlags="2" groupName="currentrep" contentDefinitionType="UDMRepPartCad"/>
$$                </udmxml:Children>
$$            </udmxml:Entity>
$$            <udmxml:Entity xsi:type="udmxml:PartCType" protoInstanceRefId="28cf2376aa88bb4381eccbb2e3e6badf:0" prototypeRefId="ba1bc57a86694c4085397542baa3625f:0" displayName="Sailplane" contentDefinitionType="UDMPartProtoOcc" id="2e3079fba7d70e41ba1acfa943424e17:0">
$$                <udmxml:Attributes>
$$                    <udmxml:Attribute xsi:type="udmxml:AttributeCType" valueutf8="ba1bc57a86694c4085397542baa3625f" type="string" name="protoref" displayName="Prototype reference">ba1bc57a86694c4085397542baa3625f</udmxml:Attribute>
$$                    <udmxml:Attribute xsi:type="udmxml:AttributeCType" valueutf8="28cf2376aa88bb4381eccbb2e3e6badf" type="string" name="protoinstanceref" displayName="Prototype Instance reference">28cf2376aa88bb4381eccbb2e3e6badf</udmxml:Attribute>
$$                    <udmxml:Attribute xsi:type="udmxml:AttributeCType" valueutf8="6" type="int" name="MODELUNIT">6</udmxml:Attribute>
$$                    <udmxml:Attribute xsi:type="udmxml:AttributeCType" valueutf8="35" type="string" name="UdmxmlString_HmOccurrenceColor">35</udmxml:Attribute>
$$                    <udmxml:Attribute xsi:type="udmxml:AttributeCType" valueutf8="5" type="string" name="UdmxmlString_HmOccurrenceId">5</udmxml:Attribute>
$$                    <udmxml:Attribute xsi:type="udmxml:AttributeCType" valueutf8="6891719" type="string" name="UdmxmlString_HmOccurrenceTrueColor">6891719</udmxml:Attribute>
$$                </udmxml:Attributes>
$$                <udmxml:Children>
$$                    <udmxml:Child xsi:type="udmxml:ChildCType" refId="9c658fe15037ab488a887fef38b3fd9e:0" timestamp="1718817487971538" childFlags="0" groupName="partprotooccs" contentDefinitionType="UDMPartProtoOcc">
$$                        <AdditionalIdList xsi:type="udmxml:AdditionalIdCType" xmlns="http://schemas.altair.com/AltairUDM" keyValue="asw flugel daniel neueste" keyName="displayname" contentDefinitionType="UDMPartProtoOcc"/>
$$                    </udmxml:Child>
$$                </udmxml:Children>
$$            </udmxml:Entity>
$$            <udmxml:Entity xsi:type="udmxml:PartCType" prototypeRefId="295574a7e0cd0040809c171b961ad442:0" displayName="Model" contentDefinitionType="UDMPartProtoOcc" id="813b99ffc83aed4d8e9ca60d389bafe6:0">
$$                <udmxml:Attributes>
$$                    <udmxml:Attribute xsi:type="udmxml:AttributeCType" valueutf8="295574a7e0cd0040809c171b961ad442" type="string" name="protoref" displayName="Prototype reference">295574a7e0cd0040809c171b961ad442</udmxml:Attribute>
$$                    <udmxml:Attribute xsi:type="udmxml:AttributeCType" valueutf8="43" type="string" name="UdmxmlString_HmOccurrenceColor">43</udmxml:Attribute>
$$                    <udmxml:Attribute xsi:type="udmxml:AttributeCType" valueutf8="2" type="string" name="UdmxmlString_HmOccurrenceId">2</udmxml:Attribute>
$$                    <udmxml:Attribute xsi:type="udmxml:AttributeCType" valueutf8="9869273" type="string" name="UdmxmlString_HmOccurrenceTrueColor">9869273</udmxml:Attribute>
$$                    <udmxml:Attribute xsi:type="udmxml:AttributeCType" valueutf8="true" type="boolean" name="pseudo root">true</udmxml:Attribute>
$$                </udmxml:Attributes>
$$                <udmxml:Children>
$$                    <udmxml:Child xsi:type="udmxml:ChildCType" refId="2e3079fba7d70e41ba1acfa943424e17:0" timestamp="1718817487971538" childFlags="0" groupName="partprotooccs" contentDefinitionType="UDMPartProtoOcc">
$$                        <AdditionalIdList xsi:type="udmxml:AdditionalIdCType" xmlns="http://schemas.altair.com/AltairUDM" keyValue="Sailplane" keyName="displayname" contentDefinitionType="UDMPartProtoOcc"/>
$$                    </udmxml:Child>
$$                </udmxml:Children>
$$            </udmxml:Entity>
$$            <udmxml:Entity xsi:type="udmxml:RepresentationPartCType" displayName="CAD" contentDefinitionType="UDMRepPartCad" id="821ba630f9ef3c46b103a70dcee615a9:0">
$$                <udmxml:Attributes>
$$                    <udmxml:Attribute xsi:type="udmxml:AttributeCType" valueutf8="CAD" type="string" name="Definition">CAD</udmxml:Attribute>
$$                    <udmxml:Attribute xsi:type="udmxml:AttributeCType" valueutf8="CAD" type="string" name="HW_REPALIAS">CAD</udmxml:Attribute>
$$                    <udmxml:Attribute xsi:type="udmxml:AttributeCType" valueutf8="821ba630f9ef3c46b103a70dcee615a9:0" type="string" name="persist_rep_uid">821ba630f9ef3c46b103a70dcee615a9:0</udmxml:Attribute>
$$                    <udmxml:Attribute xsi:type="udmxml:AttributeCType" valueutf8="0" type="string" name="repversion">0</udmxml:Attribute>
$$                </udmxml:Attributes>
$$            </udmxml:Entity>
$$        </udmxml:EntityCollection>
$$        <udmxml:RelationCollection xsi:type="udmxml:RelationCollectionCType"/>
$$        <udmxml:RootEntities xsi:type="udmxml:RootEntityCollectionCType">
$$            <udmxml:ItemId>ab8271319303c847a727739f884be6c3:0</udmxml:ItemId>
$$        </udmxml:RootEntities>
$$    </UDM>
$$</Altair_XML_Export>
